data_image0
_chemical_formula_structural       Br8Cs4Pb2
_chemical_formula_sum              "Br8 Cs4 Pb2"
_cell_length_a       5.6385
_cell_length_b       5.6385
_cell_length_c       18.879
_cell_angle_alpha    90
_cell_angle_beta     90
_cell_angle_gamma    90

_space_group_name_H-M_alt    "P 1"
_space_group_IT_number       1

loop_
  _space_group_symop_operation_xyz
  'x, y, z'

loop_
  _atom_site_type_symbol
  _atom_site_label
  _atom_site_symmetry_multiplicity
  _atom_site_fract_x
  _atom_site_fract_y
  _atom_site_fract_z
  _atom_site_occupancy
  Br  Br1       1.0  0.50000  0.50000  0.66796  1.0000
  Br  Br2       1.0  0.50000  0.50000  0.33204  1.0000
  Br  Br3       1.0  0.00000  0.00000  0.16796  1.0000
  Br  Br4       1.0  0.00000  0.00000  0.83204  1.0000
  Br  Br5       1.0  0.50000  0.00000  0.50000  1.0000
  Br  Br6       1.0  0.00000  0.50000  0.50000  1.0000
  Br  Br7       1.0  0.00000  0.50000  0.00000  1.0000
  Br  Br8       1.0  0.50000  0.00000  0.00000  1.0000
  Cs  Cs1       1.0  0.00000  0.00000  0.36821  1.0000
  Cs  Cs2       1.0  0.00000  0.00000  0.63179  1.0000
  Cs  Cs3       1.0  0.50000  0.50000  0.86821  1.0000
  Cs  Cs4       1.0  0.50000  0.50000  0.13179  1.0000
  Pb  Pb1       1.0  0.50000  0.50000  0.50000  1.0000
  Pb  Pb2       1.0  0.00000  0.00000  0.00000  1.0000
